Circuit: * C:\Users\thu_tsh\Documents\IOT Switch\IOT-Application---All-files\Simulation\Draft6.asc

Direct Newton iteration failed to find .op point.  (Use ".option noopiter" to skip.)
Starting Gmin stepping
Gmin = 10
Gmin = 1.07374
Gmin = 0.115292
Gmin = 0.0123794
Gmin = 0.00132923
Gmin = 0.000142725
Gmin = 1.5325e-005
Gmin = 1.6455e-006
Gmin = 1.76685e-007
Gmin = 1.89714e-008
Gmin = 2.03704e-009
Gmin = 2.18725e-010
Gmin = 2.34854e-011
Gmin = 2.52173e-012
Gmin = 2.70769e-013
Gmin = 0
Gmin stepping succeeded in finding the operating point.


Date: Thu Jun 10 10:45:01 2021
Total elapsed time: 0.607 seconds.

tnom = 27
temp = 27
method = modified trap
totiter = 38900
traniter = 38522
tranpoints = 13735
accept = 9845
rejected = 3890
matrix size = 59
fillins = 57
solver = Normal
Thread vector: 10.8/5.8[3] 4.6/3.1[3] 1.9/1.4[3] 0.3/1.0[1]  2592/500
Matrix Compiler1: 10.29 KB object code size  2.0/1.2/[0.6]
Matrix Compiler2: 6.92 KB object code size  1.0/0.9/[0.4]

