Circuit: * C:\Users\tshis\Documents\GitHub\IOT-Application---All-files\Simulation\Draft6.asc

Direct Newton iteration failed to find .op point.  (Use ".option noopiter" to skip.)
Starting Gmin stepping
Gmin = 10
Gmin = 1.07374
Gmin = 0.115292
Gmin = 0.0123794
Gmin = 0.00132923
Gmin = 0.000142725
Gmin = 1.5325e-005
Gmin = 1.6455e-006
Gmin = 1.76685e-007
Gmin = 1.89714e-008
Gmin = 2.03704e-009
Gmin = 2.18725e-010
Gmin = 2.34854e-011
Gmin = 2.52173e-012
Gmin = 2.70769e-013
Gmin = 0
Gmin stepping succeeded in finding the operating point.


Date: Sat Jun 12 21:43:53 2021
Total elapsed time: 0.765 seconds.

tnom = 27
temp = 27
method = modified trap
totiter = 39638
traniter = 39260
tranpoints = 14011
accept = 10040
rejected = 3971
matrix size = 59
fillins = 57
solver = Normal
Thread vector: 8.2/5.6[3] 4.1/4.1[1] 2.0/2.2[1] 0.3/0.6[1]  2592/500
Matrix Compiler1: 10.29 KB object code size  1.9/1.0/[0.8]
Matrix Compiler2: 6.92 KB object code size  0.9/1.2/[0.7]

