Circuit: * C:\Users\thu_tsh\Documents\IOT Switch\IOT-Application---All-files\Simulation\Draft6.asc

Direct Newton iteration failed to find .op point.  (Use ".option noopiter" to skip.)
Starting Gmin stepping
Gmin = 10
Gmin = 1.07374
Gmin = 0.115292
Gmin = 0.0123794
Gmin = 0.00132923
Gmin = 0.000142725
Gmin = 1.5325e-005
Gmin = 1.6455e-006
Gmin = 1.76685e-007
Gmin = 1.89714e-008
Gmin = 2.03704e-009
Gmin = 2.18725e-010
Gmin = 2.34854e-011
Gmin = 2.52173e-012
Gmin = 2.70769e-013
Gmin = 0
Gmin stepping succeeded in finding the operating point.


Date: Wed Jun 09 13:48:15 2021
Total elapsed time: 0.603 seconds.

tnom = 27
temp = 27
method = modified trap
totiter = 37536
traniter = 37158
tranpoints = 13034
accept = 9045
rejected = 3989
matrix size = 59
fillins = 57
solver = Normal
Thread vector: 8.4/5.0[3] 4.4/3.0[3] 2.0/2.8[1] 0.3/1.1[1]  2592/500
Matrix Compiler1: 10.29 KB object code size  2.1/1.0/[0.6]
Matrix Compiler2: 6.92 KB object code size  0.9/1.2/[0.4]

